//--------------------------------------------------------------------------------------------------//
// Dados das Chaves
//--------------------------------------------------------------------------------------------------//

// Chave localizada entre a barra 671 e 692
New Line.671692 phases=3 bus1=671 bus2=692 switch=y
