/* ------------------------------------------------------------------------------------------------------- */
/*  LoadShapes
/* ------------------------------------------------------------------------------------------------------- */
New Loadshape.Residencial
~ npts=24 interval=1
~ mult=(0.69000000,0.50999999,0.44999999,0.41999999,0.55000001,0.85000002,1.01999998,0.80000001,0.89999998,0.91000003,1.02999997,1.03999996,1.11000001,0.98000002,0.94000000,0.94000000,1.02999997,1.26999998,1.51999998,1.59000003,1.75999999,1.50999999,1.29999995,0.89999998)

New Loadshape.Residencial_Minuto
~ npts=1440 minterval=1
~ mult=(file=Load1440.csv)

/* ------------------------------------------------------------------------------------------------------- */
/*  LineCodes
/* ------------------------------------------------------------------------------------------------------- */
New LineCode.2CA_3  nphases=3 BaseFreq=60  R1=0.963  X1=0.467 Units=km normamps=152
